Test/LineConstantsCode.DSS
!--- OpenDSS Linecodes file generated from Show LINECONSTANTS command
!--- Frequency = 60 Hz, Earth resistivity = 100 ohm-m
!--- Earth Model = Carson

New Linecode.606 nphases=3  Units=kft
~ Rmatrix=[0.151172  |0.0601922  0.149285  |0.0535479  0.0601922  0.151172  ]
~ Xmatrix=[0.0831378  |0.00536507  0.0752625  |-0.00337444  0.00536507  0.0831378  ]
~ Cmatrix=[72.7194  |0  72.7194  |0  0  72.7194  ]

New Linecode.606-75 nphases=3  Units=kft
~ Rmatrix=[0.171945  |0.0686107  0.170896  |0.0620361  0.0686107  0.171945  ]
~ Xmatrix=[0.093177  |0.0111438  0.0853496  |0.00188087  0.0111438  0.093177  ]
~ Cmatrix=[72.7194  |0  72.7194  |0  0  72.7194  ]

New Linecode.606-75a nphases=3  Units=kft
~ Rmatrix=[0.168798  |0.07123  0.168482  |0.0655867  0.07123  0.168798  ]
~ Xmatrix=[0.0843716  |0.0147354  0.0759712  |0.0047409  0.0147354  0.0843716  ]
~ Cmatrix=[72.7194  |0  72.7194  |0  0  72.7194  ]

New Linecode.607 nphases=1  Units=kft
~ Rmatrix=[0.262538  ]
~ Xmatrix=[0.263498  ]
~ Cmatrix=[46.968  ]
